%nprocshared=2
%mem=1GB
%chk=propylene.chk
#p b3lyp/6-31G(d) admp=(maxpoint=1000)

Generated by Multiwfn

  0  1
C     -2.77102726   -0.02046072    0.12606232
H     -2.34933130   -1.00378856    0.11427830
H     -2.66028419    0.42670822   -0.83968915
H     -3.81012974   -0.08094361    0.37407008
C     -2.04181070    0.83825739    1.17603681
H     -2.15255377    0.39108845    2.14178829
H     -1.00270822    0.89874028    0.92802905
C     -2.57590637    2.08368346    1.19096176
H     -3.36370046    2.14259356    0.46929005
H     -2.96778008    2.29206642    2.16456925
H     -1.81793453    2.79971825    0.95081001
 
